Version 4
SHEET 1 880 680
WIRE 128 48 16 48
WIRE -144 80 -288 80
WIRE 128 80 128 48
WIRE 160 80 128 80
WIRE 128 112 128 80
WIRE 160 112 128 112
WIRE -288 128 -288 80
WIRE -288 128 -304 128
WIRE 16 128 16 48
WIRE 16 128 -16 128
WIRE -288 144 -288 128
WIRE -288 144 -304 144
WIRE 16 144 16 128
WIRE 16 144 -16 144
WIRE -288 160 -288 144
WIRE -288 160 -304 160
WIRE -288 176 -288 160
WIRE -288 176 -304 176
WIRE 16 176 16 144
WIRE 16 176 -16 176
WIRE -288 192 -288 176
WIRE -144 192 -144 80
WIRE -144 192 -288 192
WIRE 16 192 16 176
WIRE 16 192 -16 192
WIRE 16 240 16 192
WIRE 16 240 -16 240
WIRE 16 304 16 240
WIRE 128 304 128 112
WIRE 128 304 16 304
TEXT 16 64 Left 0 ;TXI
TEXT 16 80 Left 0 ;RX0
TEXT 16 96 Left 0 ;RST
TEXT 16 112 Left 0 ;GND
TEXT 16 128 Left 0 ;D2
TEXT 16 144 Left 0 ;D3
TEXT 16 160 Left 0 ;D4
TEXT 16 176 Left 0 ;D5
TEXT 16 192 Left 0 ;D6
TEXT 16 208 Left 0 ;D7
TEXT 16 224 Left 0 ;D8
TEXT 16 240 Left 0 ;D9
TEXT 16 256 Left 0 ;D10
TEXT 16 272 Left 0 ;D11
TEXT 16 288 Left 0 ;D12
TEXT 128 64 Right 0 ;VIN
TEXT 128 80 Right 0 ;GND
TEXT 128 96 Right 0 ;RST
TEXT 128 112 Right 0 ;5V
TEXT 128 128 Right 0 ;A7
TEXT 128 144 Right 0 ;A6
TEXT 128 160 Right 0 ;A5
TEXT 128 176 Right 0 ;A4
TEXT 128 192 Right 0 ;A3
TEXT 128 208 Right 0 ;A2
TEXT 128 224 Right 0 ;A1
TEXT 128 240 Right 0 ;A0
TEXT 128 256 Right 0 ;REF
TEXT 128 272 Right 0 ;3V3
TEXT 128 288 Right 0 ;D13
TEXT -192 96 Right 0 ;RPWM
TEXT -176 96 Left 0 ;LPWM
TEXT -192 112 Right 0 ;R_EN
TEXT -176 112 Left 0 ;L_EN
TEXT -192 128 Right 0 ;R_IS
TEXT -176 128 Left 0 ;R_IS
TEXT -192 144 Right 0 ;VCC
TEXT -176 144 Left 0 ;GND
TEXT -280 176 Left 0 ;B-
TEXT -280 160 Left 0 ;B+
TEXT -280 144 Left 0 ;M+
TEXT -280 128 Left 0 ;M-
TEXT -16 128 Right 0 ;R_EN,L_EN L&R
TEXT -16 240 Right 0 ;RPWML
TEXT -16 192 Right 0 ;LPWML
TEXT 160 112 Left 0 ;VCC L&R
TEXT 160 80 Left 0 ;GND L&R
TEXT -16 176 Right 0 ;LPWMR
TEXT -16 144 Right 0 ;RPWMR
TEXT -304 168 Right 0 ;Battery
TEXT -304 136 Right 0 ;Motor
